12
Lattice="22.0 0.0 0.0 0.0 22.0 0.0 0.0 0.0 22.0"
C 11.41535000 9.66832500 10.97953500
C 10.58467000 12.33172500 11.02047500
C 11.99903000 10.56740500 11.87250500
C 10.00100000 11.43261500 10.12750500
C 11.58370000 11.89910500 11.89295500
C 10.41635000 10.10087500 10.10701500
H 11.73936000 8.62955500 10.96361500
H 10.26066000 13.37044500 11.03640500
H 12.77822000 10.22990500 12.55304500
H 9.22178000 11.77011500 9.44696500
H 12.03887000 12.60043500 12.58950500
H 9.96113000 9.39956500 9.41049500