9
Lattice="22.0 0.0 0.0 0.0 22.0 0.0 0.0 0.0 22.0"
C 11.01591500 11.87821500 11.66172500
C 10.13161500 10.89700500 11.16415500
C 10.86960500 10.20272500 10.22384500
H 10.62191500 9.36725500 9.58343500
H 9.10345500 10.71911500 11.44618500
H 10.83242500 12.63274500 12.41656500
H 12.89654500 10.52869500 9.63866500
N 12.10053500 10.77938500 10.20966500
N 12.21825500 11.80898500 11.08057500
