8
Lattice="22.0 0.0 0.0 0.0 22.0 0.0 0.0 0.0 22.0"
C 11.13769000 11.49895000 11.00094000
O 11.74707000 12.55972000 11.00028000
N 9.78540000 11.40471000 10.69863000
N 11.73819000 10.28413000 11.30402000
H 9.24993000 10.65093000 11.11422000
H 9.31407000 12.30128000 10.68780000
H 11.35317000 9.44028000 10.89551000
H 12.75007000 10.32741000 11.31220000
